06_Joshua_Smith/gisPython/commonWealth.DSS
New Line.258908455 Phases= 3  Bus1=258908452.1.2.3 Bus2=258908457.1.2.3 Length=13.540000 units=m Spacing=8'-ARM-STANDARD-3PH wires=['1/0-ACSR-B-6X1' '1/0-ACSR-B-6X1' '1/0-ACSR-B-6X1' '1/0-ACSR-B-6X1' ]
New Line.258908273 Phases= 1  Bus1=258908270.2 Bus2=258908275.2 Length=51.610000 units=m Spacing=VERTICAL-1-PH-60-1PH wires=['4-CU-WP-7' '2-CU-WP-7' ]
New Line.258904311 Phases= 1  Bus1=258904308.2 Bus2=258904313.2 Length=30.830000 units=m Spacing=VERTICAL-1-PH-60-1PH wires=['2-ACSR-B-6X1' '1/0-ACSR-B-6X1' ]
New Line.258908278 Phases= 1  Bus1=258908275.2 Bus2=258908280.2 Length=35.640000 units=m Spacing=VERTICAL-1-PH-60-1PH wires=['4-CU-WP-7' '1/0-ACSR-B-6X1' ]
New Line.699603826 Phases= 3  Bus1=699603823.1.2.3 Bus2=258903826.1.2.3 Length=24.790000 units=m Spacing=8'-ARM-NON-CENTER-POST-3PH wires=['336-AAC-B-19' '336-AAC-B-19' '336-AAC-B-19' '1/0-ACSR-B-6X1' ]
New Line.258904399 Phases= 1  Bus1=258904396.1 Bus2=258904401.1 Length=25.220000 units=m Spacing=VERTICAL-1-PH-60-1PH wires=['2-ACSR-B-6X1' '1/0-ACSR-B-6X1' ]
New Line.258904130 Phases= 3  Bus1=258904125.1.2.3 Bus2=258904132.1.2.3 Length=23.090000 units=m Spacing=8'-ARM-STANDARD-3PH wires=['2-ACSR-B-6X1' '2-ACSR-B-6X1' '2-ACSR-B-6X1' '1/0-ACSR-B-6X1' ]
New Line.699603825 Phases= 3  Bus1=258903821.1.2.3 Bus2=699603823.1.2.3 Length=25.580000 units=m Spacing=8'-ARM-NON-CENTER-POST-3PH wires=['336-AAC-B-19' '336-AAC-B-19' '336-AAC-B-19' '1/0-ACSR-B-6X1' ]
New Line.263642066 Phases= 3  Bus1=263642063.1.2.3 Bus2=258896333.1.2.3 Length=33.700000 units=m Spacing=8'-ARM-STANDARD-3PH wires=['1/0-ACSR-B-6X1' '1/0-ACSR-B-6X1' '1/0-ACSR-B-6X1' '1/0-ACSR-B-6X1' ]
New Line.258904135 Phases= 3  Bus1=258904132.1.2.3 Bus2=258904137.1.2.3 Length=31.100000 units=m Spacing=8'-ARM-STANDARD-3PH wires=['2-ACSR-B-6X1' '2-ACSR-B-6X1' '2-ACSR-B-6X1' '1/0-ACSR-B-6X1' ]
New Line.258908373 Phases= 1  Bus1=258908370.1 Bus2=258908375.1 Length=77.210000 units=m Spacing=VERTICAL-1-PH-60-1PH wires=['4-CU-WP-7' '1/0-ACSR-B-6X1' ]
New Line.258908433 Phases= 1  Bus1=258908430.3 Bus2=258908435.3 Length=47.770000 units=m Spacing=VERTICAL-1-PH-60-1PH wires=['2-ACSR-B-6X1' '2-CU-WP-7' ]
New Line.258904093 Phases= 1  Bus1=258904090.2 Bus2=258904095.2 Length=70.680000 units=m Spacing=VERTICAL-1-PH-60-1PH wires=['2-ACSR-B-6X1' '1/0-ACSR-B-6X1' ]
New Line.258904013 Phases= 1  Bus1=258904010.2 Bus2=258904015.2 Length=10.420000 units=m Spacing=VERTICAL-1-PH-60-1PH wires=['2-ACSR-B-6X1' '1/0-ACSR-B-6X1' ]
New Line.263642061 Phases= 3  Bus1=258896328.1.2.3 Bus2=263642063.1.2.3 Length=1.520000 units=m Spacing=8'-ARM-STANDARD-3PH wires=['1/0-ACSR-B-6X1' '1/0-ACSR-B-6X1' '1/0-ACSR-B-6X1' '1/0-ACSR-B-6X1' ]
New Line.699645828 Phases= 1  Bus1=699645825.3 Bus2=258904651.3 Length=56.520000 units=m Spacing=VERTICAL-1-PH-60-1PH wires=['4-CU-B-7' '2-CU-B-7' ]
New Line.263530741 Phases= 1  Bus1=263530738.3 Bus2=258907891.3 Length=62.220000 units=m Spacing=NEUTRAL-ON-ARM-1PH wires=['6-CU-B-S' '6-CU-B-S' ]
New Line.258908378 Phases= 1  Bus1=258908375.1 Bus2=258908380.1 Length=19.720000 units=m Spacing=VERTICAL-1-PH-60-1PH wires=['4-CU-WP-7' '4-CU-WP-7' ]
New Line.258908438 Phases= 3  Bus1=258896333.1.2.3 Bus2=258908440.1.2.3 Length=17.210000 units=m Spacing=8'-ARM-STANDARD-3PH wires=['1/0-ACSR-B-6X1' '1/0-ACSR-B-6X1' '1/0-ACSR-B-6X1' '1/0-ACSR-B-6X1' ]
New Line.699645827 Phases= 1  Bus1=258904646.3 Bus2=699645825.3 Length=64.050000 units=m Spacing=VERTICAL-1-PH-60-1PH wires=['4-CU-B-7' '2-CU-B-7' ]
New Line.258904018 Phases= 1  Bus1=258904010.2 Bus2=258904020.2 Length=73.350000 units=m Spacing=VERTICAL-1-PH-60-1PH wires=['2-ACSR-B-6X1' '1/0-ACSR-B-6X1' ]
New Line.263530745 Phases= 3  Bus1=258896640.1.2.3 Bus2=263530747.1.2.3 Length=1.510000 units=m Spacing=8'-ARM-STANDARD-3PH wires=['2-ACSR-B-6X1' '2-ACSR-B-6X1' '2-ACSR-B-6X1' '2-ACSR-B-6X1' ]
New Line.258904098 Phases= 1  Bus1=258904095.2 Bus2=258904100.2 Length=61.050000 units=m Spacing=VERTICAL-1-PH-60-1PH wires=['2-ACSR-B-6X1' '1/0-ACSR-B-6X1' ]
New Line.699645908 Phases= 1  Bus1=699645905.1 Bus2=258904528.1 Length=28.800000 units=m Spacing=VERTICAL-1-PH-60-1PH wires=['2-ACSR-B-6X1' '1/0-ACSR-B-6X1' ]
New Line.258903933 Phases= 3  Bus1=258903930.1.2.3 Bus2=258903935.1.2.3 Length=17.130000 units=m Spacing=8'-ARM-NON-CENTER-POST-3PH wires=['336-AAC-B-19' '336-AAC-B-19' '336-AAC-B-19' '1/0-ACSR-B-6X1' ]
New Line.699645907 Phases= 1  Bus1=699645894.1 Bus2=699645905.1 Length=21.680000 units=m Spacing=VERTICAL-1-PH-60-1PH wires=['2-ACSR-B-6X1' '1/0-ACSR-B-6X1' ]
New Line.699603807 Phases= 3  Bus1=263532863.1.2.3 Bus2=699603805.1.2.3 Length=7.560000 units=m Spacing=8'-ARM-NON-CENTER-POST-3PH wires=['1/0-ACSR-B-6X1' '1/0-ACSR-B-6X1' '1/0-ACSR-B-6X1' '1/0-ACSR-B-6X1' ]
New Line.258904113 Phases= 1  Bus1=258904110.2 Bus2=258904115.2 Length=18.400000 units=m Spacing=VERTICAL-1-PH-60-1PH wires=['2-ACSR-B-6X1' '1/0-ACSR-B-6X1' ]
New Line.699603885 Phases= 3  Bus1=699603882.1.2.3 Bus2=258903863.1.2.3 Length=33.250000 units=m Spacing=8'-ARM-NON-CENTER-POST-3PH wires=['336-AAC-B-19' '336-AAC-B-19' '336-AAC-B-19' '1/0-ACSR-B-6X1' ]
New Line.699603884 Phases= 3  Bus1=258903858.1.2.3 Bus2=699603882.1.2.3 Length=27.250000 units=m Spacing=8'-ARM-NON-CENTER-POST-3PH wires=['336-AAC-B-19' '336-AAC-B-19' '336-AAC-B-19' '1/0-ACSR-B-6X1' ]
New Line.258908074 Phases= 1  Bus1=258908071.1 Bus2=258908076.1 Length=33.090000 units=m Spacing=VERTICAL-1-PH-60-1PH wires=['4-ACSR-B-6X1' '2-CU-B-7' ]
New Line.258903812 Phases= 3  Bus1=258903807.1.2.3 Bus2=258903814.1.2.3 Length=110.300000 units=m Spacing=8'-ARM-NON-CENTER-POST-3PH wires=['336-AAC-B-19' '336-AAC-B-19' '336-AAC-B-19' '1/0-ACSR-B-6X1' ]
New Line.258903938 Phases= 3  Bus1=258903935.1.2.3 Bus2=258903940.1.2.3 Length=17.310000 units=m Spacing=8'-ARM-NON-CENTER-POST-3PH wires=['336-AAC-B-19' '336-AAC-B-19' '336-AAC-B-19' '1/0-ACSR-B-6X1' ]
New Line.258908353 Phases= 1  Bus1=258908350.1 Bus2=258908355.1 Length=17.160000 units=m Spacing=VERTICAL-1-PH-60-1PH wires=['4-CU-WP-7' '4-CU-WP-7' ]
New Line.258903891 Phases= 3  Bus1=258903878.1.2.3 Bus2=258903893.1.2.3 Length=38.240000 units=m Spacing=8'-ARM-NON-CENTER-POST-3PH wires=['336-AAC-B-19' '336-AAC-B-19' '336-AAC-B-19' '1/0-ACSR-B-6X1' ]
New Line.258908079 Phases= 1  Bus1=258908076.1 Bus2=258908081.1 Length=122.200000 units=m Spacing=VERTICAL-1-PH-60-1PH wires=['4-ACSR-B-6X1' '2-CU-B-7' ]
New Line.263991391 Phases= 1  Bus1=258904698.3 Bus2=263991393.3 Length=1.520000 units=m Spacing=VERTICAL-1-PH-60-1PH wires=['2-ACSR-B-6X1' '2-ACSR-B-6X1' ]
New Line.263991396 Phases= 1  Bus1=263991393.3 Bus2=258904703.3 Length=69.880000 units=m Spacing=VERTICAL-1-PH-60-1PH wires=['2-ACSR-B-6X1' '2-ACSR-B-6X1' ]
New Line.455183905 Phases= 3  Bus1=455183901.1.2.3 Bus2=258896476.1.2.3 Length=18.520000 units=m Spacing=8'-ARM-NON-CENTER-POST-3PH wires=['336-ACSR-WP-18X1' '336-ACSR-WP-18X1' '336-ACSR-WP-18X1' '336-ACSR-B-18X1' ]
New Line.704839530 Phases= 1  Bus1=258904030.2 Bus2=704839528.2 Length=20.860000 units=m Spacing=VERTICAL-1-PH-60-1PH wires=['2-ACSR-B-6X1' '1/0-ACSR-B-6X1' ]
New Line.704839531 Phases= 1  Bus1=704839528.2 Bus2=258904035.2 Length=19.650000 units=m Spacing=VERTICAL-1-PH-60-1PH wires=['2-ACSR-B-6X1' '1/0-ACSR-B-6X1' ]
New Line.258908233 Phases= 3  Bus1=258908230.1.2.3 Bus2=258908235.1.2.3 Length=82.180000 units=m Spacing=8'-ARM-NON-CENTER-POST-3PH wires=['4-CU-WP-7' '4-CU-WP-7' '4-CU-WP-7' '1/0-CU-WP-7' ]
New Line.258908358 Phases= 1  Bus1=258908355.1 Bus2=258908360.1 Length=78.240000 units=m Spacing=VERTICAL-1-PH-60-1PH wires=['4-CU-WP-7' '4-CU-WP-7' ]
New Line.258908418 Phases= 1  Bus1=258908415.3 Bus2=258908420.3 Length=64.140000 units=m Spacing=VERTICAL-1-PH-60-1PH wires=['4-CU-WP-7' '2-CU-WP-7' ]
New Line.258903819 Phases= 3  Bus1=258903814.1.2.3 Bus2=258903821.1.2.3 Length=69.680000 units=m Spacing=8'-ARM-NON-CENTER-POST-3PH wires=['336-AAC-B-19' '336-AAC-B-19' '336-AAC-B-19' '1/0-ACSR-B-6X1' ]
New Line.258903898 Phases= 3  Bus1=258903893.1.2.3 Bus2=258903900.1.2.3 Length=50.070000 units=m Spacing=8'-ARM-NON-CENTER-POST-3PH wires=['336-AAC-B-19' '336-AAC-B-19' '336-AAC-B-19' '1/0-ACSR-B-6X1' ]
New Line.263530727 Phases= 3  Bus1=258896623.1.2.3 Bus2=263530729.1.2.3 Length=1.520000 units=m Spacing=8'-ARM-STANDARD-3PH wires=['2-ACSR-B-6X1' '2-ACSR-B-6X1' '2-ACSR-B-6X1' '1/0-ACSR-B-6X1' ]
New Line.478673659 Phases= 3  Bus1=258908250.1.2.3 Bus2=258908260.1.2.3 Length=51.270000 units=m Spacing=8'-ARM-NON-CENTER-POST-3PH wires=['4-CU-WP-7' '4-CU-WP-7' '4-CU-WP-7' '2-CU-WP-7' ]
New Line.263533244 Phases= 1  Bus1=263533241.2 Bus2=258904757.2 Length=66.400000 units=m Spacing=VERTICAL-1-PH-60-1PH wires=['2-ACSR-B-6X1' '2-CU-WP-7' ]
New Line.258903913 Phases= 3  Bus1=258903910.1.2.3 Bus2=258903915.1.2.3 Length=30.540000 units=m Spacing=8'-ARM-NON-CENTER-POST-3PH wires=['336-AAC-B-19' '336-AAC-B-19' '336-AAC-B-19' '1/0-ACSR-B-6X1' ]
New Line.258908238 Phases= 3  Bus1=258908235.1.2.3 Bus2=258908240.1.2.3 Length=10.900000 units=m Spacing=8'-ARM-NON-CENTER-POST-3PH wires=['4-CU-WP-7' '4-CU-WP-7' '4-CU-WP-7' '1/0-CU-WP-7' ]
New Line.258908179 Phases= 3  Bus1=258896476.1.2.3 Bus2=258908181.1.2.3 Length=15.790000 units=m Spacing=8'-ARM-NON-CENTER-POST-3PH wires=['336-ACSR-WP-18X1' '336-ACSR-WP-18X1' '336-ACSR-WP-18X1' '336-ACSR-B-18X1' ]
New Line.258907874 Phases= 1  Bus1=258907869.2 Bus2=258907876.2 Length=9.400000 units=m Spacing=VERTICAL-1-PH-60-1PH wires=['2-ACSR-B-6X1' '2-ACSR-B-6X1' ]
New Line.258908054 Phases= 3  Bus1=258908055.1.2.3 Bus2=258908056.1.2.3 Length=24.470000 units=m Spacing=8'-ARM-NON-CENTER-POST-3PH wires=['2-ACSR-B-6X1' '2-ACSR-B-6X1' '2-ACSR-B-6X1' '1/0-ACSR-B-6X1' ]
New Line.263533064 Phases= 1  Bus1=263533061.2 Bus2=258904263.2 Length=19.270000 units=m Spacing=VERTICAL-1-PH-60-1PH wires=['2-ACSR-B-6X1' '2-CU-B-7' ]
New Line.258903918 Phases= 3  Bus1=258903919.1.2.3 Bus2=258903920.1.2.3 Length=27.110000 units=m Spacing=8'-ARM-NON-CENTER-POST-3PH wires=['336-AAC-B-19' '336-AAC-B-19' '336-AAC-B-19' '1/0-ACSR-B-6X1' ]
New Line.263533068 Phases= 1  Bus1=258904231.1 Bus2=263533070.1 Length=1.530000 units=m Spacing=VERTICAL-1-PH-60-1PH wires=['4-ACSR-B-6X1' '2-CU-B-7' ]
New Line.258903998 Phases= 3  Bus1=258903995.1.2.3 Bus2=258904000.1.2.3 Length=31.800000 units=m Spacing=8'-ARM-NON-CENTER-POST-3PH wires=['2-ACSR-B-6X1' '2-ACSR-B-6X1' '2-ACSR-B-6X1' '1/0-ACSR-B-6X1' ]
New Line.258908059 Phases= 3  Bus1=258908056.1.2.3 Bus2=258908061.1.2.3 Length=59.680000 units=m Spacing=8'-ARM-STANDARD-3PH wires=['2-ACSR-B-6X1' '2-ACSR-B-6X1' '2-ACSR-B-6X1' '1/0-ACSR-B-6X1' ]
New Line.699624909 Phases= 1  Bus1=258904191.2 Bus2=699624907.2 Length=5.010000 units=m Spacing=VERTICAL-1-PH-60-1PH wires=['4-CU-B-7' '2-CU-B-7' ]
New Line.258907970 Phases= 3  Bus1=258907965.1.2.3 Bus2=258907972.1.2.3 Length=55.890000 units=m Spacing=8'-ARM-NON-CENTER-POST-3PH wires=['4-ACSR-B-6X1' '4-ACSR-B-6X1' '4-ACSR-B-6X1' '2-CU-B-7' ]
New Line.258908293 Phases= 1  Bus1=258908290.2 Bus2=258908295.2 Length=81.250000 units=m Spacing=VERTICAL-1-PH-60-1PH wires=['4-CU-WP-7' '1/0-ACSR-B-6X1' ]
New Line.258908153 Phases= 3  Bus1=258908145.1.2.3 Bus2=258908155.1.2.3 Length=49.340000 units=m Spacing=8'-ARM-NON-CENTER-POST-3PH wires=['4-ACSR-B-6X1' '4-ACSR-B-6X1' '4-ACSR-B-6X1' '2-CU-B-7' ]
New Line.258908213 Phases= 3  Bus1=258908208.1.2.3 Bus2=258908215.1.2.3 Length=31.710000 units=m Spacing=8'-ARM-NON-CENTER-POST-3PH wires=['4-CU-WP-7' '4-CU-WP-7' '4-CU-WP-7' '1/0-CU-WP-7' ]
New Line.258908338 Phases= 1  Bus1=258896459.1 Bus2=258908340.1 Length=9.470000 units=m Spacing=VERTICAL-1-PH-60-1PH wires=['4-CU-WP-7' '4-CU-WP-7' ]
New Line.263533163 Phases= 1  Bus1=263533160.3 Bus2=258904615.3 Length=22.510000 units=m Spacing=VERTICAL-1-PH-60-1PH wires=['2-ACSR-B-6X1' '1/0-ACSR-B-6X1' ]
New Line.263533221 Phases= 2  Bus1=258904718.1.2 Bus2=263533223.1.2 Length=1.520000 units=m Spacing=8'-ARM-STANDARD-2PH wires=['2-ACSR-B-6X1' '2-ACSR-B-6X1' '1/0-ACSR-B-6X1' ]
New Line.258907975 Phases= 1  Bus1=258907972.2 Bus2=258907977.2 Length=34.450000 units=m Spacing=VERTICAL-1-PH-60-1PH wires=['4-ACSR-B-6X1' '2-CU-B-7' ]
New Line.263533226 Phases= 2  Bus1=263533223.1.2 Bus2=258904725.1.2 Length=69.810000 units=m Spacing=8'-ARM-STANDARD-2PH wires=['2-ACSR-B-6X1' '2-ACSR-B-6X1' '1/0-ACSR-B-6X1' ]
New Line.263533167 Phases= 1  Bus1=258903838.3 Bus2=263533169.3 Length=1.520000 units=m Spacing=VERTICAL-1-PH-60-1PH wires=['2-ACSR-B-6X1' '2-ACSR-B-6X1' ]
New Line.258907852 Phases= 1  Bus1=258907849.1 Bus2=258907854.1 Length=32.200000 units=m Spacing=VERTICAL-1-PH-60-1PH wires=['4-CU-B-7' '2-CU-B-7' ]
New Line.258908032 Phases= 1  Bus1=258908029.2 Bus2=258908034.2 Length=21.140000 units=m Spacing=VERTICAL-1-PH-60-1PH wires=['2-ACSR-B-6X1' '1/0-ACSR-B-6X1' ]
New Line.258908158 Phases= 3  Bus1=258908155.1.2.3 Bus2=258908160.1.2.3 Length=64.320000 units=m Spacing=8'-ARM-NON-CENTER-POST-3PH wires=['4-ACSR-B-6X1' '4-ACSR-B-6X1' '2-ACSR-B-6X1' '2-CU-B-7' ]
New Line.258908218 Phases= 1  Bus1=258908215.2 Bus2=258908220.2 Length=28.930000 units=m Spacing=VERTICAL-1-PH-60-1PH wires=['4-CU-WP-7' '4-CU-WP-7' ]
New Line.258907857 Phases= 1  Bus1=258907854.1 Bus2=258907859.1 Length=28.210000 units=m Spacing=VERTICAL-1-PH-60-1PH wires=['4-CU-B-7' '1/0-ACSR-B-6X1' ]
New Line.258908298 Phases= 1  Bus1=258908295.2 Bus2=258908300.2 Length=69.830000 units=m Spacing=VERTICAL-1-PH-60-1PH wires=['2-ACSR-B-6X1' '2-CU-WP-7' ]
New Line.263533041 Phases= 1  Bus1=258904147.1 Bus2=263533043.1 Length=1.520000 units=m Spacing=VERTICAL-1-PH-60-1PH wires=['2-ACSR-B-6X1' '1/0-ACSR-B-6X1' ]
New Line.263533046 Phases= 1  Bus1=263533043.1 Bus2=258904176.1 Length=32.170000 units=m Spacing=VERTICAL-1-PH-60-1PH wires=['2-ACSR-B-6X1' '1/0-ACSR-B-6X1' ]
New Line.258908037 Phases= 1  Bus1=258908034.2 Bus2=258908039.2 Length=19.020000 units=m Spacing=VERTICAL-1-PH-60-1PH wires=['2-ACSR-B-6X1' '1/0-CU-B-7' ]
New Line.259148828 Phases= 3  Bus1=258903795.1.2.3 Bus2=258903806.1.2.3 Length=63.370000 units=m Spacing=8'-ARM-NON-CENTER-POST-3PH wires=['336-AAC-B-19' '336-AAC-B-19' '336-AAC-B-19' '1/0-ACSR-B-6X1' ]
New Line.258908393 Phases= 1  Bus1=258908390.1 Bus2=258908395.1 Length=28.630000 units=m Spacing=VERTICAL-1-PH-60-1PH wires=['4-CU-WP-7' '1/0-ACSR-B-6X1' ]
New Line.258908313 Phases= 1  Bus1=258908310.2 Bus2=258908315.2 Length=30.820000 units=m Spacing=VERTICAL-1-PH-60-1PH wires=['4-CU-WP-7' '4-CU-WP-7' ]
New Line.258896650 Phases= 3  Bus1=258896647.1.2.3 Bus2=258896652.1.2.3 Length=17.950000 units=m Spacing=8'-ARM-NON-CENTER-POST-3PH wires=['336-AAC-B-19' '336-AAC-B-19' '336-AAC-B-19' '1/0-ACSR-B-6X1' ]
New Line.258907953 Phases= 3  Bus1=258907950.1.2.3 Bus2=258907955.1.2.3 Length=45.460000 units=m Spacing=8'-ARM-NON-CENTER-POST-3PH wires=['2-ACSR-B-6X1' '2-ACSR-B-6X1' '2-ACSR-B-6X1' '2-ACSR-B-6X1' ]
New Line.258908318 Phases= 1  Bus1=258908315.2 Bus2=258908320.2 Length=35.910000 units=m Spacing=VERTICAL-1-PH-60-1PH wires=['4-CU-WP-7' '1/0-ACSR-B-6X1' ]
New Line.258908398 Phases= 1  Bus1=258908395.1 Bus2=258908400.1 Length=29.690000 units=m Spacing=VERTICAL-1-PH-60-1PH wires=['4-CU-WP-7' '2-CU-WP-7' ]
New Line.258908131 Phases= 3  Bus1=258908126.1.2.3 Bus2=258908133.1.2.3 Length=53.120000 units=m Spacing=8'-ARM-NON-CENTER-POST-3PH wires=['4-ACSR-B-6X1' '4-ACSR-B-6X1' '4-ACSR-B-6X1' '2-CU-B-7' ]
New Line.264491245 Phases= 3  Bus1=264491247.1.2.3 Bus2=258680605.1.2.3 Length=1.520000 units=m Spacing=8'-ARM-NON-CENTER-POST-3PH wires=['336-AAC-B-19' '336-AAC-B-19' '336-AAC-B-19' '1/0-ACSR-B-6X1' ]
New Line.258907832 Phases= 1  Bus1=258907824.2 Bus2=258907834.2 Length=50.850000 units=m Spacing=VERTICAL-1-PH-60-1PH wires=['4-CU-B-7' '2-CU-B-7' ]
New Line.258908138 Phases= 3  Bus1=258908133.1.2.3 Bus2=258908140.1.2.3 Length=52.440000 units=m Spacing=8'-ARM-NON-CENTER-POST-3PH wires=['4-ACSR-B-6X1' '4-ACSR-B-6X1' '4-ACSR-B-6X1' '2-CU-B-7' ]
New Line.263533023 Phases= 1  Bus1=258904000.2 Bus2=263533025.2 Length=1.520000 units=m Spacing=VERTICAL-1-PH-60-1PH wires=['2-ACSR-B-6X1' '1/0-ACSR-B-6X1' ]
New Line.258908010 Phases= 1  Bus1=258908007.2 Bus2=258908012.2 Length=10.490000 units=m Spacing=VERTICAL-1-PH-60-1PH wires=['4-ACSR-B-6X1' '2-CU-B-7' ]
New Line.258896479 Phases= 3  Bus1=258896469.1.2.3 Bus2=258896481.1.2.3 Length=20.540000 units=m Spacing=8'-ARM-STANDARD-3PH wires=['336-ACSR-B-18X1' '336-ACSR-B-18X1' '336-ACSR-B-18X1' '336-ACSR-B-18X1' ]
New Line.264491249 Phases= 3  Bus1=258903945.1.2.3 Bus2=264491247.1.2.3 Length=32.190000 units=m Spacing=8'-ARM-NON-CENTER-POST-3PH wires=['336-AAC-B-19' '336-AAC-B-19' '336-AAC-B-19' '1/0-ACSR-B-6X1' ]
New Line.258908015 Phases= 1  Bus1=258908012.2 Bus2=258908017.2 Length=41.200000 units=m Spacing=VERTICAL-1-PH-60-1PH wires=['4-ACSR-B-6X1' '2-CU-B-7' ]
New Line.258908094 Phases= 1  Bus1=258908091.1 Bus2=258908096.1 Length=21.420000 units=m Spacing=VERTICAL-1-PH-60-1PH wires=['4-ACSR-B-6X1' '2-CU-B-7' ]
New Line.258896576 Phases= 3  Bus1=258896573.1.2.3 Bus2=258896578.1.2.3 Length=52.880000 units=m Spacing=8'-ARM-STANDARD-3PH wires=['336-AAC-B-19' '336-AAC-B-19' '336-AAC-B-19' '1/0-ACSR-B-6X1' ]
New Line.258908099 Phases= 1  Bus1=258908096.1 Bus2=258908101.1 Length=23.450000 units=m Spacing=VERTICAL-1-PH-60-1PH wires=['4-ACSR-B-6X1' '2-CU-B-7' ]
New Line.258896571 Phases= 3  Bus1=258896566.1.2.3 Bus2=258896573.1.2.3 Length=72.660000 units=m Spacing=8'-ARM-STANDARD-3PH wires=['336-AAC-B-19' '336-AAC-B-19' '336-AAC-B-19' '1/0-ACSR-B-6X1' ]
New Line.258907933 Phases= 3  Bus1=258907928.1.2.3 Bus2=258907935.1.2.3 Length=40.360000 units=m Spacing=8'-ARM-NON-CENTER-POST-3PH wires=['4-ACSR-B-6X1' '4-ACSR-B-6X1' '4-ACSR-B-6X1' '2-CU-B-7' ]
New Line.258908191 Phases= 3  Bus1=258908188.1.2.3 Bus2=258908193.1.2.3 Length=34.900000 units=m Spacing=8'-ARM-NON-CENTER-POST-3PH wires=['4-CU-WP-7' '4-CU-WP-7' '4-CU-WP-7' '4-CU-B-7' ]
New Line.258896452 Phases= 3  Bus1=258896449.1.2.3 Bus2=258896454.1.2.3 Length=97.070000 units=m Spacing=8'-ARM-NON-CENTER-POST-3PH wires=['336-ACSR-WP-18X1' '336-ACSR-WP-18X1' '336-ACSR-WP-18X1' '336-ACSR-B-18X1' ]
New Line.258896638 Phases= 3  Bus1=258896639.1.2.3 Bus2=258896640.1.2.3 Length=29.010000 units=m Spacing=8'-ARM-NON-CENTER-POST-3PH wires=['336-AAC-B-19' '336-AAC-B-19' '336-AAC-B-19' '1/0-ACSR-B-6X1' ]
New Line.258908196 Phases= 3  Bus1=258908193.1.2.3 Bus2=258908198.1.2.3 Length=23.190000 units=m Spacing=8'-ARM-NON-CENTER-POST-3PH wires=['4-CU-WP-7' '4-CU-WP-7' '4-CU-WP-7' '4-CU-WP-7' ]
New Line.259184262 Phases= 3  Bus1=258896628.1.2.3 Bus2=258896639.1.2.3 Length=17.850000 units=m Spacing=8'-ARM-NON-CENTER-POST-3PH wires=['336-AAC-B-19' '336-AAC-B-19' '336-AAC-B-19' '1/0-ACSR-B-6X1' ]
New Line.258907812 Phases= 1  Bus1=258907804.1 Bus2=258907814.1 Length=68.660000 units=m Spacing=VERTICAL-1-PH-60-1PH wires=['6-CU-B-S' '2-CU-B-7' ]
New Line.258907938 Phases= 1  Bus1=258907935.1 Bus2=258907940.1 Length=22.400000 units=m Spacing=VERTICAL-1-PH-60-1PH wires=['4-ACSR-B-6X1' '2-CU-B-7' ]
New Line.258907817 Phases= 2  Bus1=258907809.1.2 Bus2=258907819.1.2 Length=14.800000 units=m Spacing=8'-ARM-STANDARD-2PH wires=['4-CU-B-7' '4-CU-B-7' '4-CU-B-7' ]
New Line.258908119 Phases= 3  Bus1=258908116.1.2.3 Bus2=258908121.1.2.3 Length=19.850000 units=m Spacing=8'-ARM-NON-CENTER-POST-3PH wires=['4-ACSR-B-6X1' '4-ACSR-B-6X1' '4-ACSR-B-6X1' '2-CU-B-7' ]
New Line.258907894 Phases= 1  Bus1=258907891.3 Bus2=258907896.3 Length=44.820000 units=m Spacing=NEUTRAL-ON-ARM-1PH wires=['6-CU-B-S' '6-CU-B-S' ]
New Line.263533086 Phases= 1  Bus1=258904367.1 Bus2=263533088.1 Length=1.520000 units=m Spacing=VERTICAL-1-PH-60-1PH wires=['2-ACSR-B-6X1' '1/0-ACSR-B-6X1' ]
New Line.258907899 Phases= 1  Bus1=258907896.3 Bus2=258907901.3 Length=81.460000 units=m Spacing=VERTICAL-1-PH-60-1PH wires=['1/0-ACSR-B-6X1' '1/0-ACSR-B-6X1' ]
New Line.263533005 Phases= 3  Bus1=258903970.1.2.3 Bus2=263533007.1.2.3 Length=1.530000 units=m Spacing=8'-ARM-STANDARD-3PH wires=['2-ACSR-B-6X1' '2-ACSR-B-6X1' '2-ACSR-B-6X1' '1/0-ACSR-B-6X1' ]
New Line.716733229 Phases= 3  Bus1=258903858.1.2.3 Bus2=716733231.1.2.3 Length=1.530000 units=m Spacing=8'-ARM-NON-CENTER-POST-3PH wires=['2-ACSR-B-6X1' '2-ACSR-B-6X1' '2-ACSR-B-6X1' '1/0-ACSR-B-6X1' ]
New Line.258896554 Phases= 3  Bus1=258896551.1.2.3 Bus2=258896556.1.2.3 Length=40.420000 units=m Spacing=8'-ARM-STANDARD-3PH wires=['1/0-ACSR-B-6X1' '1/0-ACSR-B-6X1' '1/0-ACSR-B-6X1' '1/0-ACSR-B-6X1' ]
New Line.258896376 Phases= 3  Bus1=258896373.1.2.3 Bus2=258896378.1.2.3 Length=19.210000 units=m Spacing=8'-ARM-NON-CENTER-POST-3PH wires=['336-ACSR-WP-18X1' '336-ACSR-WP-18X1' '336-ACSR-WP-18X1' '336-ACSR-B-18X1' ]
New Line.258907990 Phases= 1  Bus1=258907987.2 Bus2=258907992.2 Length=23.820000 units=m Spacing=VERTICAL-1-PH-60-1PH wires=['4-ACSR-B-6X1' '2-CU-B-7' ]
New Line.258907916 Phases= 3  Bus1=258907911.1.2.3 Bus2=258907918.1.2.3 Length=48.080000 units=m Spacing=8'-ARM-NON-CENTER-POST-3PH wires=['4-ACSR-B-6X1' '4-ACSR-B-6X1' '4-ACSR-B-6X1' '2-CU-B-7' ]
New Line.263533181 Phases= 3  Bus1=263533178.1.2.3 Bus2=258904634.1.2.3 Length=24.910000 units=m Spacing=8'-ARM-NON-CENTER-POST-3PH wires=['2-ACSR-B-6X1' '2-ACSR-B-6X1' '2-ACSR-B-6X1' '2-ACSR-B-6X1' ]
New Line.258896435 Phases= 3  Bus1=258896432.1.2.3 Bus2=258896437.1.2.3 Length=20.490000 units=m Spacing=8'-ARM-NON-CENTER-POST-3PH wires=['336-ACSR-WP-18X1' '336-ACSR-WP-18X1' '336-ACSR-WP-18X1' '336-ACSR-B-18X1' ]
New Line.258907995 Phases= 1  Bus1=258907992.2 Bus2=258907997.2 Length=49.580000 units=m Spacing=VERTICAL-1-PH-60-1PH wires=['4-ACSR-B-6X1' '2-CU-B-7' ]
New Line.263533180 Phases= 2  Bus1=258903843.1.2 Bus2=263533178.1.2 Length=1.510000 units=m Spacing=8'-ARM-STANDARD-2PH wires=['2-ACSR-B-6X1' '2-ACSR-B-6X1' '2-ACSR-B-6X1' ]
New Line.258896430 Phases= 3  Bus1=258896427.1.2.3 Bus2=258896432.1.2.3 Length=24.310000 units=m Spacing=8'-ARM-NON-CENTER-POST-3PH wires=['336-ACSR-WP-18X1' '336-ACSR-WP-18X1' '336-ACSR-WP-18X1' '336-ACSR-B-18X1' ]
New Line.258896559 Phases= 3  Bus1=258896534.1.2.3 Bus2=258896561.1.2.3 Length=23.090000 units=m Spacing=8'-ARM-STANDARD-3PH wires=['336-AAC-B-19' '336-AAC-B-19' '336-AAC-B-19' '1/0-ACSR-B-6X1' ]
New Line.263534361 Phases= 3  Bus1=263534358.1.2.3 Bus2=258908188.1.2.3 Length=14.090000 units=m Spacing=8'-ARM-NON-CENTER-POST-3PH wires=['336-ACSR-WP-18X1' '336-ACSR-WP-18X1' '336-ACSR-WP-18X1' '336-ACSR-B-18X1' ]
New Line.258896371 Phases= 3  Bus1=258896368.1.2.3 Bus2=258896373.1.2.3 Length=14.840000 units=m Spacing=8'-ARM-NON-CENTER-POST-3PH wires=['336-ACSR-WP-18X1' '336-ACSR-WP-18X1' '336-ACSR-WP-18X1' '336-ACSR-B-18X1' ]
New Line.263534365 Phases= 1  Bus1=258908198.2 Bus2=263534367.2 Length=1.530000 units=m Spacing=VERTICAL-1-PH-60-1PH wires=['4-CU-WP-7' '4-CU-WP-7' ]
New Line.627235850 Phases= 3  Bus1=258896598.1.2.3 Bus2=258896613.1.2.3 Length=40.790000 units=m Spacing=8'-ARM-STANDARD-3PH wires=['336-AAC-B-19' '336-AAC-B-19' '336-AAC-B-19' '1/0-ACSR-B-6X1' ]
New Line.258896537 Phases= 3  Bus1=258896538.1.2.3 Bus2=258896539.1.2.3 Length=128.800000 units=m Spacing=8'-ARM-STANDARD-3PH wires=['1/0-ACSR-B-6X1' '1/0-ACSR-B-6X1' '1/0-ACSR-B-6X1' '1/0-ACSR-B-6X1' ]
New Line.258896532 Phases= 3  Bus1=258896529.1.2.3 Bus2=258896534.1.2.3 Length=23.370000 units=m Spacing=8'-ARM-STANDARD-3PH wires=['336-AAC-B-19' '336-AAC-B-19' '336-AAC-B-19' '1/0-ACSR-B-6X1' ]
New Line.263532861 Phases= 3  Bus1=258903814.1.2.3 Bus2=263532863.1.2.3 Length=1.530000 units=m Spacing=8'-ARM-NON-CENTER-POST-3PH wires=['1/0-ACSR-B-6X1' '1/0-ACSR-B-6X1' '1/0-ACSR-B-6X1' '1/0-ACSR-B-6X1' ]
New Line.258896356 Phases= 3  Bus1=258896353.1.2.3 Bus2=258896358.1.2.3 Length=18.730000 units=m Spacing=8'-ARM-NON-CENTER-POST-3PH wires=['336-ACSR-WP-18X1' '336-ACSR-WP-18X1' '336-ACSR-WP-18X1' '336-ACSR-B-18X1' ]
New Line.258896496 Phases= 3  Bus1=258896486.1.2.3 Bus2=258896498.1.2.3 Length=12.460000 units=m Spacing=8'-ARM-STANDARD-3PH wires=['336-ACSR-B-18X1' '336-ACSR-B-18X1' '336-ACSR-B-18X1' '336-ACSR-B-18X1' ]
New Line.258896413 Phases= 3  Bus1=258896410.1.2.3 Bus2=258896415.1.2.3 Length=26.540000 units=m Spacing=8'-ARM-NON-CENTER-POST-3PH wires=['336-ACSR-WP-18X1' '336-ACSR-WP-18X1' '336-ACSR-WP-18X1' '336-ACSR-B-18X1' ]
New Line.258896491 Phases= 3  Bus1=258896486.1.2.3 Bus2=258896493.1.2.3 Length=23.370000 units=m Spacing=8'-ARM-STANDARD-3PH wires=['336-AAC-B-19' '336-AAC-B-19' '336-AAC-B-19' '1/0-ACSR-B-6X1' ]
New Line.263534347 Phases= 1  Bus1=258907940.1 Bus2=263534349.1 Length=1.520000 units=m Spacing=VERTICAL-1-PH-60-1PH wires=['4-ACSR-B-6X1' '2-CU-B-7' ]
New Line.263974100 Phases= 1  Bus1=263974097.3 Bus2=259500718.3 Length=6.130000 units=m Spacing=VERTICAL-1-PH-104-1PH wires=['1/0-ACSR-B-6X1' '1/0-ACSR-B-6X1' ]
New Line.258896596 Phases= 3  Bus1=258896593.1.2.3 Bus2=258896598.1.2.3 Length=84.240000 units=m Spacing=8'-ARM-STANDARD-3PH wires=['336-AAC-B-19' '336-AAC-B-19' '336-AAC-B-19' '1/0-ACSR-B-6X1' ]
New Line.258896515 Phases= 3  Bus1=258896510.1.2.3 Bus2=258896517.1.2.3 Length=50.260000 units=m Spacing=8'-ARM-STANDARD-3PH wires=['336-AAC-B-19' '336-AAC-B-19' '336-AAC-B-19' '1/0-ACSR-B-6X1' ]
New Line.263532843 Phases= 1  Bus1=258903785.3 Bus2=263532845.3 Length=1.520000 units=m Spacing=VERTICAL-1-PH-60-1PH wires=['6-CU-WP-7' '6-CU-WP-7' ]
New Line.258896591 Phases= 3  Bus1=258896592.1.2.3 Bus2=258896593.1.2.3 Length=28.380000 units=m Spacing=8'-ARM-STANDARD-3PH wires=['336-AAC-B-19' '336-AAC-B-19' '336-AAC-B-19' '1/0-ACSR-B-6X1' ]
New Line.258896336 Phases= 3  Bus1=258896328.1.2.3 Bus2=258896338.1.2.3 Length=20.250000 units=m Spacing=8'-ARM-NON-CENTER-POST-3PH wires=['336-ACSR-WP-18X1' '336-ACSR-WP-18X1' '336-ACSR-WP-18X1' '336-ACSR-B-18X1' ]
New Line.263681996 Phases= 1  Bus1=258904783.2 Bus2=263681998.2 Length=1.520000 units=m Spacing=VERTICAL-1-PH-60-1PH wires=['2-ACSR-B-6X1' '1/0-ACSR-B-6X1' ]
New Line.259157436 Phases= 1  Bus1=258904772.2 Bus2=258904783.2 Length=47.680000 units=m Spacing=VERTICAL-1-PH-60-1PH wires=['2-ACSR-B-6X1' '1/0-ACSR-B-6X1' ]
New Line.263532848 Phases= 1  Bus1=263532845.3 Bus2=258907693.3 Length=48.150000 units=m Spacing=VERTICAL-1-PH-60-1PH wires=['6-CU-WP-7' '6-CU-WP-7' ]
New Line.263534320 Phases= 1  Bus1=258907906.2 Bus2=263534322.2 Length=1.520000 units=m Spacing=VERTICAL-1-PH-104-1PH wires=['4-ACSR-B-6X1' '2-CU-B-7' ]
New Line.263681992 Phases= 1  Bus1=263681989.2 Bus2=258904779.2 Length=30.890000 units=m Spacing=VERTICAL-1-PH-60-1PH wires=['2-ACSR-B-6X1' '1/0-ACSR-B-6X1' ]
New Line.264495344 Phases= 3  Bus1=258896652.1.2.3 Bus2=264495346.1.2.3 Length=1.520000 units=m Spacing=8'-ARM-NON-CENTER-POST-3PH wires=['336-AAC-B-19' '336-AAC-B-19' '336-AAC-B-19' '1/0-ACSR-B-6X1' ]
New Line.263534324 Phases= 2  Bus1=258907906.1.3 Bus2=263534322.1.3 Length=1.520000 units=m Spacing=8'-ARM-STANDARD-2PH wires=['4-ACSR-B-6X1' '4-ACSR-B-6X1' '2-CU-B-7' ]
New Line.263534325 Phases= 3  Bus1=263534322.1.2.3 Bus2=258908116.1.2.3 Length=19.450000 units=m Spacing=8'-ARM-NON-CENTER-POST-3PH wires=['4-ACSR-B-6X1' '4-ACSR-B-6X1' '4-ACSR-B-6X1' '2-CU-B-7' ]
New Line.258896294 Phases= 3  Bus1=258896289.1.2.3 Bus2=258896296.1.2.3 Length=38.900000 units=m Spacing=8'-ARM-NON-CENTER-POST-3PH wires=['336-ACSR-WP-18X1' '336-ACSR-WP-18X1' '336-ACSR-WP-18X1' '336-ACSR-B-18X1' ]
New Line.263534329 Phases= 3  Bus1=258907950.1.2.3 Bus2=263534331.1.2.3 Length=1.520000 units=m Spacing=8'-ARM-NON-CENTER-POST-3PH wires=['4-ACSR-B-6X1' '4-ACSR-B-6X1' '4-ACSR-B-6X1' '2-CU-B-7' ]
New Line.264495223 Phases= 3  Bus1=264495220.1.2.3 Bus2=258896316.1.2.3 Length=31.190000 units=m Spacing=8'-ARM-NON-CENTER-POST-3PH wires=['336-ACSR-WP-18X1' '336-ACSR-WP-18X1' '336-ACSR-WP-18X1' '336-ACSR-B-18X1' ]
New Line.264495349 Phases= 3  Bus1=264495346.1.2.3 Bus2=258903780.1.2.3 Length=81.040000 units=m Spacing=8'-ARM-NON-CENTER-POST-3PH wires=['336-AAC-B-19' '336-AAC-B-19' '336-AAC-B-19' '1/0-ACSR-B-6X1' ]
New Line.258896299 Phases= 3  Bus1=258896296.1.2.3 Bus2=258896301.1.2.3 Length=122.500000 units=m Spacing=8'-ARM-NON-CENTER-POST-3PH wires=['336-ACSR-WP-18X1' '336-ACSR-WP-18X1' '336-ACSR-WP-18X1' '336-ACSR-B-18X1' ]
New Line.263534383 Phases= 1  Bus1=258908345.1 Bus2=263534385.1 Length=1.520000 units=m Spacing=VERTICAL-1-PH-60-1PH wires=['4-CU-WP-7' '4-CU-WP-7' ]
New Line.258896393 Phases= 3  Bus1=258896390.1.2.3 Bus2=258896395.1.2.3 Length=69.830000 units=m Spacing=8'-ARM-NON-CENTER-POST-3PH wires=['336-ACSR-WP-18X1' '336-ACSR-WP-18X1' '336-ACSR-WP-18X1' '336-ACSR-B-18X1' ]
New Line.263534301 Phases= 1  Bus1=258907876.2 Bus2=263534303.2 Length=1.520000 units=m Spacing=VERTICAL-1-PH-60-1PH wires=['2-ACSR-B-6X1' '6-CU-WP-7' ]
New Line.263534306 Phases= 1  Bus1=263534303.2 Bus2=258907881.2 Length=100.100000 units=m Spacing=VERTICAL-1-PH-60-1PH wires=['2-ACSR-B-6X1' '6-CU-WP-7' ]
New Line.699603639 Phases= 3  Bus1=263532926.1.2.3 Bus2=699603637.1.2.3 Length=32.350000 units=m Spacing=8'-ARM-NON-CENTER-POST-3PH wires=['2-CU-B-7' '4-CU-B-7' '4-CU-B-7' '2-CU-B-7' ]
New Line.263534388 Phases= 1  Bus1=263534385.1 Bus2=258908350.1 Length=18.220000 units=m Spacing=VERTICAL-1-PH-60-1PH wires=['4-CU-WP-7' '4-CU-WP-7' ]
New Line.258896319 Phases= 3  Bus1=258896316.1.2.3 Bus2=258896321.1.2.3 Length=126.800000 units=m Spacing=8'-ARM-NON-CENTER-POST-3PH wires=['336-ACSR-WP-18X1' '336-ACSR-WP-18X1' '336-ACSR-WP-18X1' '336-ACSR-B-18X1' ]
New Line.263532924 Phases= 3  Bus1=258903915.1.2.3 Bus2=263532926.1.2.3 Length=1.520000 units=m Spacing=8'-ARM-NON-CENTER-POST-3PH wires=['2-CU-B-7' '4-CU-B-7' '4-CU-B-7' '2-CU-B-7' ]
New Line.264495209 Phases= 3  Bus1=258896306.1.2.3 Bus2=264495211.1.2.3 Length=1.530000 units=m Spacing=8'-ARM-NON-CENTER-POST-3PH wires=['336-ACSR-B-18X1' '336-ACSR-B-18X1' '336-ACSR-B-18X1' '336-ACSR-B-18X1' ]
New Line.263532888 Phases= 1  Bus1=258903878.1 Bus2=263532890.1 Length=1.530000 units=m Spacing=VERTICAL-1-PH-60-1PH wires=['1/0-ACSR-WP-6X1' '1/0-ACSR-B-6X1' ]
New Line.458944742 Phases= 3  Bus1=458944739.1.2.3 Bus2=258896400.1.2.3 Length=17.740000 units=m Spacing=8'-ARM-NON-CENTER-POST-3PH wires=['336-ACSR-WP-18X1' '336-ACSR-WP-18X1' '336-ACSR-WP-18X1' '336-ACSR-B-18X1' ]
New Line.263532902 Phases= 1  Bus1=263532899.1 Bus2=258904527.1 Length=78.090000 units=m Spacing=VERTICAL-1-PH-60-1PH wires=['2-ACSR-B-6X1' '1/0-ACSR-B-6X1' ]
New Line.263532983 Phases= 3  Bus1=263532980.1.2.3 Bus2=258903955.1.2.3 Length=35.820000 units=m Spacing=8'-ARM-NON-CENTER-POST-3PH wires=['2-ACSR-B-6X1' '2-ACSR-B-6X1' '2-ACSR-B-6X1' '1/0-ACSR-B-6X1' ]
New Line.458944741 Phases= 3  Bus1=258896395.1.2.3 Bus2=458944739.1.2.3 Length=29.750000 units=m Spacing=8'-ARM-NON-CENTER-POST-3PH wires=['336-ACSR-WP-18X1' '336-ACSR-WP-18X1' '336-ACSR-WP-18X1' '336-ACSR-B-18X1' ]
New Line.263532906 Phases= 3  Bus1=258903905.1.2.3 Bus2=263532908.1.2.3 Length=1.530000 units=m Spacing=8'-ARM-NON-CENTER-POST-3PH wires=['1/0-ACSR-B-6X1' '1/0-ACSR-B-6X1' '1/0-ACSR-B-6X1' '1/0-ACSR-B-6X1' ]
New Line.699603610 Phases= 1  Bus1=699603607.2 Bus2=258904186.2 Length=59.600000 units=m Spacing=VERTICAL-1-PH-60-1PH wires=['4-CU-B-7' '2-CU-B-7' ]
New Line.699624652 Phases= 1  Bus1=699624649.3 Bus2=258904070.3 Length=13.790000 units=m Spacing=VERTICAL-1-PH-60-1PH wires=['2-ACSR-B-6X1' '1/0-ACSR-B-6X1' ]
New Line.699624651 Phases= 1  Bus1=258904065.3 Bus2=699624649.3 Length=12.540000 units=m Spacing=VERTICAL-1-PH-60-1PH wires=['2-ACSR-B-6X1' '1/0-ACSR-B-6X1' ]
New Line.699624738 Phases= 1  Bus1=699624735.3 Bus2=258904065.3 Length=46.550000 units=m Spacing=VERTICAL-1-PH-60-1PH wires=['2-ACSR-B-6X1' '1/0-ACSR-B-6X1' ]
New Line.699624737 Phases= 1  Bus1=258904060.3 Bus2=699624735.3 Length=67.760000 units=m Spacing=VERTICAL-1-PH-60-1PH wires=['2-ACSR-B-6X1' '1/0-ACSR-B-6X1' ]
New Line.699623291 Phases= 1  Bus1=699623288.2 Bus2=258907668.2 Length=20.830000 units=m Spacing=VERTICAL-1-PH-60-1PH wires=['2-ACSR-B-6X1' '1/0-ACSR-B-6X1' ]
New Line.699646218 Phases= 3  Bus1=258904508.1.2.3 Bus2=699646216.1.2.3 Length=29.960000 units=m Spacing=8'-ARM-NON-CENTER-POST-3PH wires=['1/0-ACSR-WP-6X1' '1/0-ACSR-WP-6X1' '1/0-ACSR-WP-6X1' '1/0-ACSR-B-6X1' ]
New Line.699623290 Phases= 1  Bus1=258907663.2 Bus2=699623288.2 Length=21.540000 units=m Spacing=VERTICAL-1-PH-60-1PH wires=['2-ACSR-B-6X1' '1/0-ACSR-B-6X1' ]
New Line.699646219 Phases= 3  Bus1=699646216.1.2.3 Bus2=258904513.1.2.3 Length=32.890000 units=m Spacing=8'-ARM-NON-CENTER-POST-3PH wires=['1/0-ACSR-WP-6X1' '1/0-ACSR-WP-6X1' '1/0-ACSR-WP-6X1' '1/0-ACSR-B-6X1' ]
New Line.699623036 Phases= 3  Bus1=699603805.1.2.3 Bus2=699623034.1.2.3 Length=22.200000 units=m Spacing=8'-ARM-NON-CENTER-POST-3PH wires=['1/0-ACSR-B-6X1' '1/0-ACSR-B-6X1' '1/0-ACSR-B-6X1' '1/0-ACSR-B-6X1' ]
New Line.699623037 Phases= 3  Bus1=699623034.1.2.3 Bus2=258904666.1.2.3 Length=12.170000 units=m Spacing=8'-ARM-NON-CENTER-POST-3PH wires=['1/0-ACSR-B-6X1' '1/0-ACSR-B-6X1' '1/0-ACSR-B-6X1' '1/0-ACSR-B-6X1' ]
New Line.699623114 Phases= 1  Bus1=699623111.3 Bus2=258904708.3 Length=12.450000 units=m Spacing=VERTICAL-1-PH-60-1PH wires=['2-ACSR-B-6X1' '2-ACSR-B-6X1' ]
New Line.699623113 Phases= 1  Bus1=258904703.3 Bus2=699623111.3 Length=27.630000 units=m Spacing=VERTICAL-1-PH-60-1PH wires=['2-ACSR-B-6X1' '2-ACSR-B-6X1' ]
New Line.699624374 Phases= 1  Bus1=699624371.2 Bus2=258904110.2 Length=41.510000 units=m Spacing=VERTICAL-1-PH-60-1PH wires=['2-ACSR-B-6X1' '1/0-ACSR-B-6X1' ]
New Line.699624373 Phases= 1  Bus1=258904105.2 Bus2=699624371.2 Length=52.660000 units=m Spacing=VERTICAL-1-PH-60-1PH wires=['2-ACSR-B-6X1' '1/0-ACSR-B-6X1' ]
New Line.633960092 Phases= 3  Bus1=258896573.1.2.3 Bus2=633960094.1.2.3 Length=29.060000 units=m Spacing=8'-ARM-STANDARD-3PH wires=['1/0-ACSR-B-6X1' '1/0-ACSR-B-6X1' '1/0-ACSR-B-6X1' '1/0-ACSR-B-6X1' ]
New Line.258903783 Phases= 3  Bus1=258903780.1.2.3 Bus2=258903785.1.2.3 Length=33.710000 units=m Spacing=8'-ARM-NON-CENTER-POST-3PH wires=['336-AAC-B-19' '336-AAC-B-19' '336-AAC-B-19' '1/0-ACSR-B-6X1' ]
New Line.258903788 Phases= 3  Bus1=258903785.1.2.3 Bus2=258903790.1.2.3 Length=73.170000 units=m Spacing=8'-ARM-NON-CENTER-POST-3PH wires=['336-AAC-B-19' '336-AAC-B-19' '336-AAC-B-19' '1/0-ACSR-B-6X1' ]
New Line.264003737 Phases= 1  Bus1=258903919.3 Bus2=264003739.3 Length=1.530000 units=m Spacing=VERTICAL-1-PH-104-1PH wires=['1/0-ACSR-B-6X1' '1/0-ACSR-B-6X1' ]
New Line.699624174 Phases= 1  Bus1=699624161.2 Bus2=699624172.2 Length=25.430000 units=m Spacing=VERTICAL-1-PH-60-1PH wires=['2-ACSR-B-6X1' '1/0-ACSR-B-6X1' ]
New Line.699624175 Phases= 1  Bus1=699624172.2 Bus2=258904010.2 Length=22.420000 units=m Spacing=VERTICAL-1-PH-60-1PH wires=['2-ACSR-B-6X1' '1/0-ACSR-B-6X1' ]
New Line.258907760 Phases= 1  Bus1=258907752.2 Bus2=258907762.2 Length=72.910000 units=m Spacing=VERTICAL-1-PH-60-1PH wires=['4-ACSR-B-6X1' '1/0-ACSR-B-6X1' ]
New Line.258907765 Phases= 1  Bus1=258907762.2 Bus2=258907767.2 Length=31.990000 units=m Spacing=VERTICAL-1-PH-60-1PH wires=['4-ACSR-B-6X1' '1/0-ACSR-B-6X1' ]
New Line.699624253 Phases= 1  Bus1=699624236.2 Bus2=699624251.2 Length=13.570000 units=m Spacing=VERTICAL-1-PH-60-1PH wires=['2-ACSR-B-6X1' '1/0-ACSR-B-6X1' ]
New Line.699625174 Phases= 1  Bus1=699625159.1 Bus2=699625172.1 Length=40.850000 units=m Spacing=VERTICAL-1-PH-60-1PH wires=['4-ACSR-B-6X1' '2-CU-B-7' ]
New Line.699625175 Phases= 1  Bus1=699625172.1 Bus2=258904253.1 Length=42.620000 units=m Spacing=VERTICAL-1-PH-60-1PH wires=['4-ACSR-B-6X1' '2-CU-B-7' ]
New Line.258904760 Phases= 1  Bus1=258904757.2 Bus2=258904762.2 Length=126.200000 units=m Spacing=VERTICAL-1-PH-60-1PH wires=['2-ACSR-B-6X1' '1/0-ACSR-B-6X1' ]
New Line.258907740 Phases= 1  Bus1=258907732.3 Bus2=258907742.3 Length=92.940000 units=m Spacing=VERTICAL-1-PH-60-1PH wires=['6-CU-B-S' '2-CU-B-7' ]
New Line.258904765 Phases= 1  Bus1=258904762.2 Bus2=258904767.2 Length=100.400000 units=m Spacing=VERTICAL-1-PH-60-1PH wires=['2-ACSR-B-6X1' '2-CU-B-7' ]
New Line.699624238 Phases= 1  Bus1=258904080.2 Bus2=699624236.2 Length=38.590000 units=m Spacing=VERTICAL-1-PH-60-1PH wires=['2-ACSR-B-6X1' '1/0-ACSR-B-6X1' ]
...
